********************************************************************************
* Library          : C2mos
* Cell             : dynamic-pseudo-static
* View             : starrc
* View Search List : schematic hspice
* View Stop List   :
********************************************************************************
.subckt dynamic-pseudo-static clk clkb d qs
cg2236 523:d 0  c=2.7571e-17
c2235 523:d xi0|mm1|bulk  c=3.17857e-18
c2234 523:d xi13|mm0|bulk  c=1.66088e-18
c2233 523:d 158:vdd!  c=4.88866e-17
c2232 523:d 276:vdd!  c=2.40952e-18
c2231 523:d 271:vdd!  c=1.78603e-19
cg2230 xi0|mm3|gate 0  c=1.76277e-16
c2229 xi0|mm3|gate 161:vdd!  c=1.16132e-18
c2228 xi0|mm3|gate xi0|mm1|bulk  c=7.90303e-17
c2227 xi0|mm3|gate xi0|mm1|src  c=1.02488e-15
c2226 xi0|mm3|gate 373:gnd!  c=1.54485e-18
c2225 xi0|mm3|gate xi13|mm0|bulk  c=6.63319e-18
c2224 xi0|mm3|gate 273:vdd!  c=3.33464e-18
c2223 xi0|mm3|gate 474:gnd!  c=3.00074e-18
c2222 xi0|mm3|gate 275:vdd!  c=6.00417e-18
c2221 xi0|mm3|gate 477:gnd!  c=2.39471e-18
c2220 xi0|mm3|gate 274:vdd!  c=7.07384e-19
c2219 xi0|mm3|gate 475:gnd!  c=7.43709e-19
c2218 xi0|mm3|gate 476:gnd!  c=1.77637e-18
c2217 xi0|mm3|gate 158:vdd!  c=2.20572e-18
c2216 xi0|mm3|gate 276:vdd!  c=5.31872e-18
c2215 xi0|mm3|gate xi0|mm3|drn  c=3.44546e-16
c2214 xi0|mm3|gate xi0|mm3|src  c=4.17967e-16
c2213 xi0|mm3|gate 468:gnd!  c=4.84743e-20
c2212 xi0|mm3|gate gnd!  c=3.26012e-19
c2211 xi0|mm3|gate 271:vdd!  c=4.39724e-21
c2210 xi0|mm3|gate 272:vdd!  c=2.94793e-20
c2209 xi0|mm3|gate xi0|mm0|src  c=1.24919e-15
cg2208 d 0  c=7.126e-17
c2207 d xi0|mm1|bulk  c=7.98695e-20
c2206 d xi13|mm0|bulk  c=1.18736e-17
c2205 d 158:vdd!  c=2.04195e-18
c2204 d 270:vdd!  c=8.39089e-20
c2203 d 271:vdd!  c=4.38191e-19
c2202 d 199:vdd!  c=3.63147e-19
cg2201 xi11|mm0|src 0  c=1.42683e-18
c2200 xi11|mm0|src xi12|mm0|gate  c=3.08218e-20
c2199 xi11|mm0|src xi11|mm0|gate  c=1.13256e-16
c2198 xi11|mm0|src xi11|mm0|drn  c=1.63323e-17
c2197 xi11|mm0|src 222:vdd!  c=3.26153e-19
c2196 xi11|mm0|src xi13|mm1|bulk  c=1.95705e-19
c2195 xi11|mm0|src 122:net33  c=7.65071e-19
c2194 xi11|mm0|src xi13|mm1|src  c=4.31588e-25
c2193 xi11|mm0|src xi12|mm1|src  c=4.35589e-19
c2192 xi11|mm0|src xi11|mm1|src  c=2.44289e-18
c2191 xi11|mm0|src 157:ln_n42  c=1.42558e-16
c2190 xi11|mm0|src xi1|mm1|drn  c=4.31588e-25
cg2189 xi12|mm0|src 0  c=1.70388e-18
c2188 xi12|mm0|src xi1|mm1|drn  c=8.63175e-25
c2187 xi12|mm0|src 157:ln_n42  c=1.40554e-16
c2186 xi12|mm0|src xi12|mm1|src  c=1.31067e-18
c2185 xi12|mm0|src 101:net32  c=9.73004e-19
c2184 xi12|mm0|src xi12|mm0|drn  c=1.70118e-17
c2183 xi12|mm0|src xi12|mm0|gate  c=1.12976e-16
cg2182 xi1|mm3|src 0  c=2.67307e-18
c2181 xi1|mm3|src xi8|mm0|gate  c=4.09494e-20
c2180 xi1|mm3|src xi1|mm3|gate  c=4.13511e-16
c2179 xi1|mm3|src xi1|mm2|src  c=5.48063e-17
c2178 xi1|mm3|src xi1|mm2|drn  c=1.94385e-21
c2177 xi1|mm3|src xi1|mm0|gate  c=5.4999e-18
c2176 xi1|mm3|src xi1|mm0|src  c=2.08785e-18
c2175 xi1|mm3|src 157:ln_n42  c=4.67662e-16
c2174 xi1|mm3|src 239:vdd!  c=1.13831e-18
cg2173 xi8|mm0|src 0  c=1.38394e-18
c2172 xi8|mm0|src xi8|mm0|gate  c=1.08623e-16
c2171 xi8|mm0|src xi8|mm0|drn  c=1.63323e-17
c2170 xi8|mm0|src 165:vdd!  c=4.80153e-20
c2169 xi8|mm0|src 178:vdd!  c=2.23667e-21
c2168 xi8|mm0|src 175:vdd!  c=4.01985e-21
c2167 xi8|mm0|src xi8|mm1|src  c=2.30229e-18
c2166 xi8|mm0|src 267:vdd!  c=3.89966e-20
c2165 xi8|mm0|src 32:net39  c=2.37681e-19
c2164 xi8|mm0|src 33:net39  c=9.73004e-19
c2163 xi8|mm0|src xi1|mm0|src  c=8.63175e-25
c2162 xi8|mm0|src 157:ln_n42  c=1.42021e-16
cg2161 xi9|mm0|src 0  c=1.76906e-18
c2160 xi9|mm0|src xi0|mm1|bulk  c=5.40954e-19
c2159 xi9|mm0|src xi0|mm1|gate  c=1.14971e-19
c2158 xi9|mm0|src xi0|mm1|drn  c=3.09197e-19
c2157 xi9|mm0|src xi9|mm0|gate  c=1.08717e-16
c2156 xi9|mm0|src xi9|mm0|drn  c=1.63323e-17
c2155 xi9|mm0|src xi10|mm1|src  c=3.33082e-19
c2154 xi9|mm0|src 56:qm  c=8.20544e-19
c2153 xi9|mm0|src xi9|mm1|src  c=2.40534e-18
c2152 xi9|mm0|src 157:ln_n42  c=1.41623e-16
cg2151 xi10|mm0|src 0  c=1.29162e-18
c2150 xi10|mm0|src 157:ln_n42  c=1.41926e-16
c2149 xi10|mm0|src clkb  c=9.2564e-19
c2148 xi10|mm0|src xi10|mm1|src  c=1.36759e-18
c2147 xi10|mm0|src 41:net39  c=9.73004e-19
c2146 xi10|mm0|src xi0|mm2|drn  c=4.31588e-25
c2145 xi10|mm0|src xi10|mm0|drn  c=1.70118e-17
c2144 xi10|mm0|src xi10|mm0|gate  c=1.12976e-16
cg2143 xi0|mm3|src 0  c=7.85661e-18
c2142 xi0|mm3|src xi0|mm1|bulk  c=3.37277e-18
c2141 xi0|mm3|src xi0|mm2|drn  c=1.94385e-21
c2140 xi0|mm3|src 275:vdd!  c=1.13011e-18
c2139 xi0|mm3|src xi0|mm3|drn  c=5.48063e-17
c2138 xi0|mm3|src 157:ln_n42  c=4.53159e-16
c2137 xi0|mm3|src xi0|mm0|src  c=2.08785e-18
cg2136 gnd! 0  c=4.45927e-18
c2135 gnd! xi0|mm2|gate  c=1.00536e-19
c2134 gnd! 157:ln_n42  c=4.37304e-18
c2133 gnd! clkb  c=9.74049e-19
cg2132 477:gnd! 0  c=1.5582e-17
c2131 477:gnd! 60:qm  c=3.04827e-17
c2130 477:gnd! xi0|mm1|bulk  c=3.90952e-18
c2129 477:gnd! xi0|mm2|gate  c=4.2087e-18
c2128 477:gnd! 275:vdd!  c=1.13413e-17
c2127 477:gnd! clkb  c=1.56645e-19
c2126 477:gnd! 157:ln_n42  c=1.99031e-17
c2125 477:gnd! 53:qm  c=2.23908e-18
c2124 477:gnd! xi0|mm0|src  c=1.75089e-18
cg2123 476:gnd! 0  c=3.68252e-17
c2122 476:gnd! 60:qm  c=2.27746e-17
c2121 476:gnd! xi0|mm1|bulk  c=5.45311e-18
c2120 476:gnd! 109:clkb  c=2.02513e-18
c2119 476:gnd! 111:clkb  c=5.48831e-17
c2118 476:gnd! xi0|mm2|gate  c=8.62191e-18
c2117 476:gnd! xi0|mm2|drn  c=2.01153e-18
c2116 476:gnd! 50:qm  c=1.05329e-17
c2115 476:gnd! xi0|mm3|drn  c=1.30711e-17
c2114 476:gnd! clkb  c=5.68169e-17
c2113 476:gnd! 157:ln_n42  c=3.94524e-17
c2112 476:gnd! 57:qm  c=1.84398e-18
cg2111 475:gnd! 0  c=6.85944e-18
c2110 475:gnd! 157:ln_n42  c=1.4725e-17
c2109 475:gnd! clkb  c=9.67798e-20
c2108 475:gnd! xi0|mm1|bulk  c=4.47004e-18
c2107 475:gnd! 60:qm  c=1.92534e-20
cg2106 474:gnd! 0  c=1.6645e-18
c2105 474:gnd! 157:ln_n42  c=6.24065e-18
c2104 474:gnd! clkb  c=9.51397e-19
c2103 474:gnd! xi0|mm2|gate  c=1.19807e-18
c2102 474:gnd! 60:qm  c=2.07336e-18
cg2101 472:gnd! 0  c=4.32776e-18
c2100 472:gnd! 59:qm  c=1.27862e-18
c2099 472:gnd! xi0|mm1|bulk  c=1.20591e-18
c2098 472:gnd! xi0|mm1|drn  c=3.59667e-19
c2097 472:gnd! 50:qm  c=3.00528e-20
c2096 472:gnd! 56:qm  c=8.58699e-18
c2095 472:gnd! 254:vdd!  c=1.58185e-20
c2094 472:gnd! 198:vdd!  c=3.42478e-18
c2093 472:gnd! 157:ln_n42  c=2.29383e-17
c2092 472:gnd! 58:qm  c=2.04948e-17
c2091 472:gnd! 57:qm  c=3.84051e-19
cg2090 471:gnd! 0  c=3.79139e-18
c2089 471:gnd! 157:ln_n42  c=4.27193e-17
c2088 471:gnd! clkb  c=9.51397e-19
c2087 471:gnd! 60:qm  c=2.40833e-18
c2086 471:gnd! xi0|mm2|gate  c=4.16517e-19
c2085 471:gnd! 50:qm  c=2.46932e-20
c2084 471:gnd! 51:qm  c=9.43639e-19
cg2083 470:gnd! 0  c=2.80071e-17
c2082 470:gnd! 60:qm  c=9.94918e-19
c2081 470:gnd! 190:vdd!  c=2.20772e-18
c2080 470:gnd! 13:net21  c=7.00485e-19
c2079 470:gnd! xi10|mm0|gate  c=8.49258e-19
c2078 470:gnd! xi10|mm0|drn  c=1.90349e-18
c2077 470:gnd! xi0|mm2|gate  c=5.84998e-20
c2076 470:gnd! 40:net39  c=6.0996e-19
c2075 470:gnd! 41:net39  c=1.79758e-17
c2074 470:gnd! 50:qm  c=2.48394e-18
c2073 470:gnd! 55:qm  c=1.5811e-17
c2072 470:gnd! 51:qm  c=7.76941e-18
c2071 470:gnd! 32:net39  c=1.09014e-18
c2070 470:gnd! 33:net39  c=6.58455e-19
c2069 470:gnd! clkb  c=2.36889e-17
c2068 470:gnd! 28:net39  c=1.41574e-19
c2067 470:gnd! 157:ln_n42  c=8.37932e-17
cg2066 468:gnd! 0  c=6.73391e-18
c2065 468:gnd! 157:ln_n42  c=8.40599e-18
c2064 468:gnd! clkb  c=7.90207e-18
c2063 468:gnd! 111:clkb  c=2.00689e-18
c2062 468:gnd! 57:qm  c=1.93332e-19
c2061 468:gnd! 50:qm  c=2.05194e-18
c2060 468:gnd! xi0|mm2|gate  c=9.83994e-19
cg2059 467:gnd! 0  c=1.90646e-18
c2058 467:gnd! xi0|mm1|bulk  c=1.16738e-20
c2057 467:gnd! 39:net39  c=9.13741e-18
c2056 467:gnd! xi9|mm0|gate  c=8.0038e-19
c2055 467:gnd! xi9|mm0|drn  c=1.41153e-18
c2054 467:gnd! 56:qm  c=4.79098e-18
c2053 467:gnd! 267:vdd!  c=2.46712e-18
c2052 467:gnd! 254:vdd!  c=1.87952e-19
c2051 467:gnd! 198:vdd!  c=5.50879e-19
c2050 467:gnd! 157:ln_n42  c=6.57708e-18
c2049 467:gnd! 58:qm  c=2.83024e-21
c2048 467:gnd! 35:net39  c=8.02411e-19
c2047 467:gnd! 36:net39  c=6.68917e-20
c2046 467:gnd! 37:net39  c=1.02011e-18
cg2045 466:gnd! 0  c=2.81359e-18
c2044 466:gnd! 59:qm  c=4.48826e-20
c2043 466:gnd! xi0|mm1|bulk  c=9.44249e-19
c2042 466:gnd! 39:net39  c=2.23723e-19
c2041 466:gnd! xi0|mm1|drn  c=4.82346e-19
c2040 466:gnd! 56:qm  c=2.65677e-17
c2039 466:gnd! 254:vdd!  c=6.08062e-20
c2038 466:gnd! 198:vdd!  c=7.68992e-18
c2037 466:gnd! 157:ln_n42  c=1.08522e-17
c2036 466:gnd! 58:qm  c=2.0933e-18
c2035 466:gnd! 35:net39  c=4.6405e-20
cg2034 465:gnd! 0  c=5.10384e-19
c2033 465:gnd! 60:qm  c=3.6891e-21
c2032 465:gnd! xi10|mm0|gate  c=1.60073e-18
c2031 465:gnd! 40:net39  c=2.36982e-18
c2030 465:gnd! 41:net39  c=3.46614e-17
c2029 465:gnd! 50:qm  c=4.81783e-18
c2028 465:gnd! 55:qm  c=2.32282e-17
c2027 465:gnd! clkb  c=6.83461e-20
c2026 465:gnd! 157:ln_n42  c=4.78151e-18
c2025 465:gnd! 53:qm  c=4.98526e-22
cg2024 464:gnd! 0  c=1.20177e-18
c2023 464:gnd! xi0|mm1|bulk  c=3.28321e-19
c2022 464:gnd! 39:net39  c=2.30562e-17
c2021 464:gnd! xi9|mm0|gate  c=2.02013e-18
c2020 464:gnd! 177:vdd!  c=5.04941e-19
c2019 464:gnd! 56:qm  c=3.70948e-17
c2018 464:gnd! 254:vdd!  c=8.02026e-21
c2017 464:gnd! 256:vdd!  c=1.75773e-19
c2016 464:gnd! 198:vdd!  c=7.10928e-19
c2015 464:gnd! 157:ln_n42  c=3.79413e-18
c2014 464:gnd! 58:qm  c=2.13587e-19
c2013 464:gnd! 35:net39  c=4.76827e-18
cg2012 462:gnd! 0  c=1.45955e-18
c2011 462:gnd! 157:ln_n42  c=1.31861e-17
c2010 462:gnd! clkb  c=8.85913e-20
c2009 462:gnd! 60:qm  c=2.49263e-21
c2008 462:gnd! 55:qm  c=2.23723e-19
c2007 462:gnd! 50:qm  c=4.6405e-20
c2006 462:gnd! 41:net39  c=2.43872e-17
c2005 462:gnd! 40:net39  c=2.23574e-18
cg2004 461:gnd! 0  c=1.70039e-18
c2003 461:gnd! 157:ln_n42  c=1.70148e-17
c2002 461:gnd! clkb  c=5.4644e-19
c2001 461:gnd! 60:qm  c=1.23642e-18
c2000 461:gnd! 55:qm  c=5.66335e-18
c1999 461:gnd! 41:net39  c=1.93921e-18
c1998 461:gnd! xi0|mm2|gate  c=2.21739e-19
c1997 461:gnd! xi10|mm0|gate  c=2.56954e-18
cg1996 459:gnd! 0  c=8.0988e-19
c1995 459:gnd! 157:ln_n42  c=1.26051e-17
c1994 459:gnd! clkb  c=5.4644e-19
c1993 459:gnd! 60:qm  c=4.88556e-21
c1992 459:gnd! 41:net39  c=1.75573e-18
c1991 459:gnd! xi10|mm0|gate  c=3.23465e-19
c1990 459:gnd! xi0|mm2|drn  c=3.19317e-19
cg1989 458:gnd! 0  c=1.87746e-18
c1988 458:gnd! 157:ln_n42  c=1.33824e-17
c1987 458:gnd! 267:vdd!  c=1.11182e-18
c1986 458:gnd! 198:vdd!  c=5.85309e-19
c1985 458:gnd! 254:vdd!  c=1.33346e-17
c1984 458:gnd! 32:net39  c=9.86862e-19
c1983 458:gnd! xi0|mm1|bulk  c=2.72363e-19
cg1982 457:gnd! 0  c=1.49469e-17
c1981 457:gnd! 59:qm  c=4.86235e-19
c1980 457:gnd! 39:net39  c=7.31958e-18
c1979 457:gnd! xi0|mm1|bulk  c=6.78668e-19
c1978 457:gnd! xi0|mm1|drn  c=1.65284e-19
c1977 457:gnd! xi9|mm0|drn  c=2.50107e-19
c1976 457:gnd! 175:vdd!  c=2.62548e-18
c1975 457:gnd! 56:qm  c=1.35946e-17
c1974 457:gnd! 265:vdd!  c=5.63727e-19
c1973 457:gnd! 267:vdd!  c=1.83818e-17
c1972 457:gnd! 32:net39  c=1.86407e-18
c1971 457:gnd! 254:vdd!  c=1.38637e-17
c1970 457:gnd! 198:vdd!  c=1.43937e-17
c1969 457:gnd! 157:ln_n42  c=4.97323e-17
c1968 457:gnd! 199:vdd!  c=1.28701e-20
c1967 457:gnd! 58:qm  c=8.31569e-18
c1966 457:gnd! 35:net39  c=2.82203e-19
c1965 457:gnd! 36:net39  c=6.28559e-19
c1964 457:gnd! 37:net39  c=6.15319e-18
cg1963 454:gnd! 0  c=1.82957e-18
c1962 454:gnd! 258:vdd!  c=1.21014e-19
c1961 454:gnd! 243:vdd!  c=9.85729e-20
c1960 454:gnd! 16:net21  c=4.6405e-20
c1959 454:gnd! 19:net21  c=2.23723e-19
c1958 454:gnd! 165:vdd!  c=8.77661e-20
c1957 454:gnd! 178:vdd!  c=1.24619e-19
c1956 454:gnd! 32:net39  c=1.29922e-17
c1955 454:gnd! 33:net39  c=2.43872e-17
c1954 454:gnd! 28:net39  c=2.23574e-18
c1953 454:gnd! 157:ln_n42  c=1.10899e-17
cg1952 453:gnd! 0  c=1.04266e-18
c1951 453:gnd! 193:vdd!  c=9.81467e-20
c1950 453:gnd! 243:vdd!  c=3.42023e-19
c1949 453:gnd! 263:vdd!  c=2.3102e-20
c1948 453:gnd! xi8|mm0|gate  c=3.27462e-19
c1947 453:gnd! xi10|mm1|src  c=3.17204e-19
c1946 453:gnd! 32:net39  c=1.29379e-17
c1945 453:gnd! 33:net39  c=1.75573e-18
c1944 453:gnd! 157:ln_n42  c=1.20823e-17
cg1943 452:gnd! 0  c=8.48826e-19
c1942 452:gnd! 193:vdd!  c=4.86674e-19
c1941 452:gnd! 242:vdd!  c=1.05631e-19
c1940 452:gnd! 243:vdd!  c=6.06176e-20
c1939 452:gnd! xi8|mm0|gate  c=9.54848e-19
c1938 452:gnd! 16:net21  c=4.81783e-18
c1937 452:gnd! 19:net21  c=2.30876e-17
c1936 452:gnd! 32:net39  c=2.43269e-18
c1935 452:gnd! 33:net39  c=3.46614e-17
c1934 452:gnd! 28:net39  c=2.36982e-18
c1933 452:gnd! 157:ln_n42  c=4.44306e-18
cg1932 451:gnd! 0  c=1.06828e-18
c1931 451:gnd! 193:vdd!  c=3.48708e-19
c1930 451:gnd! 13:net21  c=3.83804e-19
c1929 451:gnd! 242:vdd!  c=2.83717e-19
c1928 451:gnd! 243:vdd!  c=3.93508e-18
c1927 451:gnd! xi8|mm0|gate  c=1.30775e-18
c1926 451:gnd! 19:net21  c=5.60128e-18
c1925 451:gnd! 32:net39  c=1.69691e-18
c1924 451:gnd! 33:net39  c=1.93921e-18
c1923 451:gnd! 157:ln_n42  c=1.41157e-17
cg1922 450:gnd! 0  c=4.52472e-18
c1921 450:gnd! 190:vdd!  c=6.90053e-18
c1920 450:gnd! 13:net21  c=3.11627e-18
c1919 450:gnd! 194:vdd!  c=2.88254e-18
c1918 450:gnd! 243:vdd!  c=4.99465e-18
c1917 450:gnd! 263:vdd!  c=4.78663e-20
c1916 450:gnd! xi10|mm0|gate  c=6.53246e-20
c1915 450:gnd! 245:vdd!  c=2.52429e-18
c1914 450:gnd! 40:net39  c=2.0641e-20
c1913 450:gnd! 41:net39  c=1.25457e-17
c1912 450:gnd! 50:qm  c=1.67786e-20
c1911 450:gnd! 55:qm  c=1.22556e-20
c1910 450:gnd! 32:net39  c=3.09392e-17
c1909 450:gnd! 33:net39  c=4.15292e-19
c1908 450:gnd! clkb  c=5.4644e-19
c1907 450:gnd! xi1|mm0|src  c=9.57795e-19
c1906 450:gnd! 157:ln_n42  c=7.70152e-17
cg1905 449:gnd! 0  c=1.46062e-17
c1904 449:gnd! 13:net21  c=7.6784e-19
c1903 449:gnd! 243:vdd!  c=1.23898e-17
c1902 449:gnd! 263:vdd!  c=7.99605e-20
c1901 449:gnd! xi8|mm0|gate  c=9.13557e-19
c1900 449:gnd! xi8|mm0|drn  c=1.57057e-18
c1899 449:gnd! 16:net21  c=8.81504e-19
c1898 449:gnd! 17:net21  c=1.16776e-18
c1897 449:gnd! 19:net21  c=1.04843e-17
c1896 449:gnd! xi10|mm1|src  c=1.3426e-19
c1895 449:gnd! 32:net39  c=1.15358e-17
c1894 449:gnd! 33:net39  c=5.18731e-18
c1893 449:gnd! 28:net39  c=5.19115e-19
c1892 449:gnd! 157:ln_n42  c=6.62206e-17
cg1891 448:gnd! 0  c=1.78872e-18
c1890 448:gnd! 157:ln_n42  c=1.14613e-17
c1889 448:gnd! 19:net21  c=5.34705e-18
c1888 448:gnd! 17:net21  c=7.03886e-18
c1887 448:gnd! xi8|mm0|drn  c=1.71387e-19
c1886 448:gnd! 243:vdd!  c=6.25538e-18
c1885 448:gnd! 13:net21  c=3.58145e-19
cg1884 447:gnd! 0  c=4.81281e-18
c1883 447:gnd! 157:ln_n42  c=2.43362e-17
c1882 447:gnd! clkb  c=3.45594e-18
c1881 447:gnd! 41:net39  c=7.3063e-18
c1880 447:gnd! 40:net39  c=1.84903e-19
c1879 447:gnd! 13:net21  c=1.54279e-19
c1878 447:gnd! 190:vdd!  c=7.8518e-19
cg1877 446:gnd! 0  c=5.02471e-17
c1876 446:gnd! 13:net21  c=4.88186e-21
c1875 446:gnd! 122:net33  c=1.00799e-17
c1874 446:gnd! 17:net21  c=9.21613e-20
c1873 446:gnd! xi1|mm3|gate  c=1.91766e-18
c1872 446:gnd! xi1|mm2|src  c=1.23845e-17
c1871 446:gnd! xi1|mm2|gate  c=8.59884e-18
c1870 446:gnd! xi1|mm2|drn  c=2.01153e-18
c1869 446:gnd! 123:net33  c=5.92639e-19
c1868 446:gnd! 244:vdd!  c=6.38604e-19
c1867 446:gnd! 126:net33  c=2.27746e-17
c1866 446:gnd! clk  c=2.76155e-17
c1865 446:gnd! 363:clk  c=2.02513e-18
c1864 446:gnd! 364:clk  c=5.49804e-17
c1863 446:gnd! 157:ln_n42  c=3.09313e-17
cg1862 445:gnd! 0  c=7.42256e-18
c1861 445:gnd! 157:ln_n42  c=7.02533e-18
c1860 445:gnd! clk  c=5.71771e-18
c1859 445:gnd! 17:net21  c=2.56877e-19
c1858 445:gnd! 244:vdd!  c=1.60222e-18
c1857 445:gnd! xi1|mm2|gate  c=1.77323e-19
c1856 445:gnd! 13:net21  c=2.04458e-20
c1855 445:gnd! 364:clk  c=1.02045e-18
cg1854 443:gnd! 0  c=3.18461e-18
c1853 443:gnd! 157:ln_n42  c=2.41253e-17
c1852 443:gnd! clk  c=1.5582e-19
c1851 443:gnd! xi1|mm3|gate  c=4.82725e-20
c1850 443:gnd! 126:net33  c=1.92534e-20
c1849 443:gnd! 216:vdd!  c=9.60705e-21
cg1848 442:gnd! 0  c=2.73187e-18
c1847 442:gnd! 189:vdd!  c=9.25171e-20
c1846 442:gnd! 192:vdd!  c=2.69548e-19
c1845 442:gnd! 196:vdd!  c=4.71655e-19
c1844 442:gnd! 237:vdd!  c=6.12677e-19
c1843 442:gnd! 238:vdd!  c=8.62838e-19
c1842 442:gnd! xi1|mm3|gate  c=1.25589e-18
c1841 442:gnd! xi1|mm2|gate  c=4.2087e-18
c1840 442:gnd! 124:net33  c=2.08859e-18
c1839 442:gnd! 126:net33  c=3.04562e-17
c1838 442:gnd! clk  c=1.40271e-19
c1837 442:gnd! xi1|mm0|src  c=1.7785e-18
c1836 442:gnd! 157:ln_n42  c=3.21919e-17
c1835 442:gnd! 239:vdd!  c=1.13413e-17
cg1834 441:gnd! 0  c=5.73269e-19
c1833 441:gnd! 157:ln_n42  c=5.09524e-18
c1832 441:gnd! clk  c=8.48616e-19
c1831 441:gnd! xi1|mm3|gate  c=3.12519e-19
c1830 441:gnd! xi1|mm2|gate  c=9.91326e-20
cg1829 440:gnd! 0  c=6.81167e-19
c1828 440:gnd! 157:ln_n42  c=6.85401e-18
c1827 440:gnd! clk  c=8.48616e-19
c1826 440:gnd! 126:net33  c=2.0745e-18
c1825 440:gnd! xi1|mm2|gate  c=1.19855e-18
c1824 440:gnd! xi1|mm3|gate  c=3.24323e-18
c1823 440:gnd! 216:vdd!  c=4.72013e-19
c1822 440:gnd! 215:vdd!  c=2.70968e-21
cg1821 438:gnd! 0  c=1.04636e-17
c1820 438:gnd! 157:ln_n42  c=7.236e-18
c1819 438:gnd! 364:clk  c=1.70608e-18
c1818 438:gnd! xi1|mm2|gate  c=7.91176e-19
c1817 438:gnd! 228:vdd!  c=3.59592e-20
c1816 438:gnd! 122:net33  c=1.69175e-18
cg1815 437:gnd! 0  c=1.15331e-17
c1814 437:gnd! xi11|mm0|gate  c=8.92924e-19
c1813 437:gnd! xi11|mm0|drn  c=1.71229e-18
c1812 437:gnd! 222:vdd!  c=3.08044e-17
c1811 437:gnd! 122:net33  c=1.74448e-18
c1810 437:gnd! 187:vdd!  c=2.72136e-19
c1809 437:gnd! xi12|mm1|drn  c=4.76696e-19
c1808 437:gnd! 226:vdd!  c=1.12541e-17
c1807 437:gnd! 95:net32  c=1.14251e-19
c1806 437:gnd! 96:net32  c=3.30102e-20
c1805 437:gnd! 207:vdd!  c=1.07365e-17
c1804 437:gnd! 123:net33  c=1.27153e-19
c1803 437:gnd! 94:net32  c=9.60596e-19
c1802 437:gnd! 97:net32  c=1.23487e-18
c1801 437:gnd! 99:net32  c=1.11921e-17
c1800 437:gnd! 157:ln_n42  c=2.52258e-17
cg1799 436:gnd! 0  c=3.09114e-18
c1798 436:gnd! 183:vdd!  c=6.23606e-19
c1797 436:gnd! 222:vdd!  c=9.62413e-18
c1796 436:gnd! 184:vdd!  c=5.11927e-19
c1795 436:gnd! 122:net33  c=4.2886e-18
c1794 436:gnd! 187:vdd!  c=1.59487e-18
c1793 436:gnd! 226:vdd!  c=3.23344e-17
c1792 436:gnd! 228:vdd!  c=2.55164e-18
c1791 436:gnd! 207:vdd!  c=6.69832e-20
c1790 436:gnd! 123:net33  c=3.4513e-19
c1789 436:gnd! 157:ln_n42  c=1.58441e-17
cg1788 434:gnd! 0  c=6.33905e-17
c1787 434:gnd! xi12|mm0|gate  c=8.96122e-19
c1786 434:gnd! xi12|mm0|drn  c=1.71839e-18
c1785 434:gnd! 100:net32  c=1.14205e-18
c1784 434:gnd! 101:net32  c=1.77508e-17
c1783 434:gnd! 119:net33  c=5.10057e-19
c1782 434:gnd! 120:net33  c=1.20885e-17
c1781 434:gnd! 227:vdd!  c=7.65028e-19
c1780 434:gnd! 231:vdd!  c=1.75414e-18
c1779 434:gnd! 157:ln_n42  c=4.2393e-17
cg1778 433:gnd! 0  c=7.36774e-18
c1777 433:gnd! 157:ln_n42  c=1.8457e-17
c1776 433:gnd! 235:vdd!  c=1.72066e-18
c1775 433:gnd! 231:vdd!  c=2.31426e-18
c1774 433:gnd! 227:vdd!  c=1.31967e-17
c1773 433:gnd! xi1|mm1|gate  c=2.94283e-20
c1772 433:gnd! 185:vdd!  c=1.01022e-18
c1771 433:gnd! 120:net33  c=4.82667e-18
c1770 433:gnd! 119:net33  c=3.31798e-18
c1769 433:gnd! xi12|mm0|drn  c=9.46437e-20
cg1768 432:gnd! 0  c=1.85289e-18
c1767 432:gnd! 186:vdd!  c=6.19405e-19
c1766 432:gnd! 183:vdd!  c=3.95552e-18
c1765 432:gnd! 222:vdd!  c=8.54044e-20
c1764 432:gnd! xi13|mm1|bulk  c=2.57874e-19
c1763 432:gnd! 122:net33  c=2.66239e-17
c1762 432:gnd! 226:vdd!  c=3.03961e-18
c1761 432:gnd! 228:vdd!  c=1.35297e-17
c1760 432:gnd! 207:vdd!  c=2.93341e-20
c1759 432:gnd! 208:vdd!  c=3.52397e-20
c1758 432:gnd! 123:net33  c=1.29347e-19
c1757 432:gnd! 94:net32  c=4.6405e-20
c1756 432:gnd! 99:net32  c=2.23723e-19
c1755 432:gnd! 157:ln_n42  c=9.59342e-18
cg1754 431:gnd! 0  c=6.79563e-19
c1753 431:gnd! xi12|mm0|gate  c=1.65769e-18
c1752 431:gnd! 100:net32  c=2.36982e-18
c1751 431:gnd! 101:net32  c=3.46614e-17
c1750 431:gnd! 120:net33  c=2.77711e-17
c1749 431:gnd! 184:vdd!  c=1.08002e-18
c1748 431:gnd! 185:vdd!  c=7.00847e-20
c1747 431:gnd! 225:vdd!  c=3.78008e-19
c1746 431:gnd! 127:net33  c=8.04067e-22
c1745 431:gnd! 157:ln_n42  c=3.98983e-18
cg1744 430:gnd! 0  c=6.95734e-19
c1743 430:gnd! xi11|mm0|gate  c=1.80957e-18
c1742 430:gnd! 186:vdd!  c=5.58031e-19
c1741 430:gnd! 183:vdd!  c=2.78908e-19
c1740 430:gnd! 222:vdd!  c=1.37512e-19
c1739 430:gnd! 122:net33  c=3.70948e-17
c1738 430:gnd! 228:vdd!  c=1.09252e-18
c1737 430:gnd! 208:vdd!  c=2.64291e-19
c1736 430:gnd! 123:net33  c=4.37669e-20
c1735 430:gnd! 94:net32  c=4.81783e-18
c1734 430:gnd! 169:vdd!  c=2.71855e-19
c1733 430:gnd! 99:net32  c=2.26809e-17
c1732 430:gnd! 157:ln_n42  c=4.01992e-18
cg1731 429:gnd! 0  c=8.20692e-19
c1730 429:gnd! xi11|mm0|gate  c=3.24387e-19
c1729 429:gnd! 183:vdd!  c=7.16182e-19
c1728 429:gnd! 222:vdd!  c=7.22947e-19
c1727 429:gnd! xi13|mm1|bulk  c=2.34231e-19
c1726 429:gnd! 122:net33  c=1.75573e-18
c1725 429:gnd! 226:vdd!  c=8.41808e-18
c1724 429:gnd! 228:vdd!  c=1.79234e-18
c1723 429:gnd! 207:vdd!  c=1.8535e-19
c1722 429:gnd! 123:net33  c=1.18127e-19
c1721 429:gnd! 169:vdd!  c=1.24601e-19
c1720 429:gnd! 157:ln_n42  c=8.99131e-18
cg1719 427:gnd! 0  c=1.18889e-18
c1718 427:gnd! xi11|mm0|gate  c=2.17486e-18
c1717 427:gnd! 222:vdd!  c=1.25515e-18
c1716 427:gnd! xi13|mm1|bulk  c=4.06397e-19
c1715 427:gnd! 122:net33  c=1.93921e-18
c1714 427:gnd! 226:vdd!  c=7.1834e-19
c1713 427:gnd! 95:net32  c=8.90671e-20
c1712 427:gnd! 96:net32  c=3.96857e-20
c1711 427:gnd! 207:vdd!  c=2.87668e-18
c1710 427:gnd! 208:vdd!  c=1.50719e-18
c1709 427:gnd! 169:vdd!  c=1.90659e-18
c1708 427:gnd! 99:net32  c=5.58971e-18
c1707 427:gnd! 157:ln_n42  c=1.23519e-17
cg1706 426:gnd! 0  c=2.40997e-18
c1705 426:gnd! 157:ln_n42  c=1.4696e-17
c1704 426:gnd! 227:vdd!  c=8.35772e-20
c1703 426:gnd! 225:vdd!  c=3.48239e-21
c1702 426:gnd! 120:net33  c=2.70128e-19
c1701 426:gnd! 101:net32  c=2.43872e-17
c1700 426:gnd! 100:net32  c=2.23574e-18
cg1699 425:gnd! 0  c=1.07829e-18
c1698 425:gnd! 157:ln_n42  c=1.20662e-17
c1697 425:gnd! 227:vdd!  c=5.3825e-18
c1696 425:gnd! 225:vdd!  c=4.59553e-19
c1695 425:gnd! 120:net33  c=5.40546e-18
c1694 425:gnd! 101:net32  c=1.93921e-18
c1693 425:gnd! 185:vdd!  c=3.56408e-18
c1692 425:gnd! xi12|mm0|gate  c=2.49594e-18
cg1691 423:gnd! 0  c=4.50421e-18
c1690 423:gnd! xi13|mm0|gate  c=2.79335e-20
c1689 423:gnd! xi11|mm0|drn  c=9.84815e-20
c1688 423:gnd! 222:vdd!  c=1.22767e-17
c1687 423:gnd! 226:vdd!  c=1.16347e-19
c1686 423:gnd! 95:net32  c=2.52984e-19
c1685 423:gnd! 96:net32  c=4.04449e-19
c1684 423:gnd! 207:vdd!  c=2.11191e-17
c1683 423:gnd! 97:net32  c=7.40663e-18
c1682 423:gnd! 99:net32  c=5.0644e-18
c1681 423:gnd! 157:ln_n42  c=2.46254e-17
cg1680 422:gnd! 0  c=1.72122e-17
c1679 422:gnd! 157:ln_n42  c=1.37175e-17
c1678 422:gnd! 101:net32  c=6.57238e-18
cg1677 420:gnd! 0  c=8.85638e-18
c1676 420:gnd! 157:ln_n42  c=2.25958e-17
c1675 420:gnd! 101:net32  c=8.64922e-18
cg1674 419:gnd! 0  c=1.88912e-18
c1673 419:gnd! 157:ln_n42  c=1.45933e-17
c1672 419:gnd! 227:vdd!  c=1.27076e-19
c1671 419:gnd! 101:net32  c=1.75573e-18
c1670 419:gnd! xi12|mm0|gate  c=3.15922e-19
c1669 419:gnd! 185:vdd!  c=2.11208e-19
cg1668 415:gnd! 0  c=2.2084e-18
c1667 415:gnd! xi13|mm1|bulk  c=2.73224e-18
c1666 415:gnd! 157:ln_n42  c=7.5941e-18
c1665 415:gnd! 207:vdd!  c=3.36711e-19
c1664 415:gnd! 96:net32  c=2.44345e-17
c1663 415:gnd! 95:net32  c=1.31061e-17
c1662 415:gnd! 90:net32  c=2.23574e-18
c1661 415:gnd! 3:qs  c=2.23723e-19
c1660 415:gnd! 1:qs  c=4.6405e-20
cg1659 414:gnd! 0  c=1.7263e-18
c1658 414:gnd! 157:ln_n42  c=8.67597e-18
c1657 414:gnd! 207:vdd!  c=1.45154e-19
c1656 414:gnd! 96:net32  c=1.75573e-18
c1655 414:gnd! 95:net32  c=9.95246e-18
c1654 414:gnd! xi13|mm0|gate  c=3.43237e-19
cg1653 413:gnd! 0  c=6.56122e-19
c1652 413:gnd! xi13|mm1|bulk  c=1.34568e-18
c1651 413:gnd! 157:ln_n42  c=3.29008e-18
c1650 413:gnd! 96:net32  c=3.46614e-17
c1649 413:gnd! 95:net32  c=1.90376e-18
c1648 413:gnd! 90:net32  c=2.36982e-18
c1647 413:gnd! xi13|mm0|gate  c=2.03102e-18
c1646 413:gnd! 3:qs  c=2.24861e-17
c1645 413:gnd! 1:qs  c=4.81783e-18
cg1644 412:gnd! 0  c=3.67883e-17
c1643 412:gnd! 1:qs  c=2.86977e-18
c1642 412:gnd! xi13|mm0|drn  c=1.90291e-18
c1641 412:gnd! 3:qs  c=2.14408e-17
c1640 412:gnd! xi13|mm0|gate  c=3.56096e-18
c1639 412:gnd! xi13|mm1|bulk  c=2.79683e-18
c1638 412:gnd! 95:net32  c=2.66103e-17
c1637 412:gnd! 96:net32  c=3.83242e-18
c1636 412:gnd! 90:net32  c=7.78673e-20
c1635 412:gnd! 207:vdd!  c=2.83812e-19
c1634 412:gnd! 206:vdd!  c=1.61383e-19
c1633 412:gnd! 210:vdd!  c=7.53675e-21
c1632 412:gnd! qs  c=6.08762e-18
c1631 412:gnd! 157:ln_n42  c=6.7541e-17
cg1630 411:gnd! 0  c=6.19027e-18
c1629 411:gnd! clkb  c=3.31899e-18
c1628 411:gnd! 111:clkb  c=2.75075e-19
c1627 411:gnd! 50:qm  c=5.38462e-19
cg1626 410:gnd! 0  c=6.49116e-18
c1625 410:gnd! 59:qm  c=1.05544e-18
c1624 410:gnd! xi0|mm1|bulk  c=2.4854e-18
c1623 410:gnd! 275:vdd!  c=5.84313e-19
c1622 410:gnd! 56:qm  c=3.92732e-18
c1621 410:gnd! 198:vdd!  c=2.20438e-17
c1620 410:gnd! 270:vdd!  c=2.66474e-19
c1619 410:gnd! 157:ln_n42  c=9.87887e-18
c1618 410:gnd! 58:qm  c=7.20135e-18
c1617 410:gnd! 272:vdd!  c=6.25079e-19
c1616 410:gnd! 57:qm  c=1.4477e-20
cg1615 409:gnd! 0  c=2.84262e-17
c1614 409:gnd! 59:qm  c=1.10127e-17
c1613 409:gnd! 60:qm  c=2.45136e-17
c1612 409:gnd! xi0|mm1|bulk  c=1.6981e-17
c1611 409:gnd! 275:vdd!  c=3.64992e-18
c1610 409:gnd! 40:net39  c=5.1824e-19
c1609 409:gnd! 41:net39  c=1.26102e-18
c1608 409:gnd! 50:qm  c=2.47075e-17
c1607 409:gnd! 54:qm  c=1.59463e-17
c1606 409:gnd! 174:vdd!  c=2.93954e-19
c1605 409:gnd! 55:qm  c=5.771e-18
c1604 409:gnd! 175:vdd!  c=7.37251e-20
c1603 409:gnd! 51:qm  c=7.63166e-19
c1602 409:gnd! 265:vdd!  c=6.41687e-18
c1601 409:gnd! 267:vdd!  c=1.98965e-18
c1600 409:gnd! 198:vdd!  c=5.69238e-17
c1599 409:gnd! 157:ln_n42  c=1.04668e-16
c1598 409:gnd! 58:qm  c=7.39201e-17
c1597 409:gnd! 197:vdd!  c=2.46833e-17
c1596 409:gnd! 53:qm  c=9.98144e-18
c1595 409:gnd! 57:qm  c=1.3961e-17
cg1594 406:gnd! 0  c=7.40656e-18
c1593 406:gnd! 189:vdd!  c=2.71721e-18
c1592 406:gnd! 39:net39  c=2.47802e-18
c1591 406:gnd! xi0|mm1|bulk  c=4.78324e-19
c1590 406:gnd! 249:vdd!  c=1.37133e-20
c1589 406:gnd! 177:vdd!  c=1.0934e-17
c1588 406:gnd! 267:vdd!  c=2.61844e-19
c1587 406:gnd! 32:net39  c=2.63843e-18
c1586 406:gnd! 254:vdd!  c=1.0768e-17
c1585 406:gnd! 256:vdd!  c=2.58192e-18
c1584 406:gnd! 198:vdd!  c=4.43459e-18
c1583 406:gnd! 157:ln_n42  c=1.94289e-17
c1582 406:gnd! 36:net39  c=6.75991e-19
c1581 406:gnd! 37:net39  c=2.73508e-18
cg1580 405:gnd! 0  c=1.76312e-17
c1579 405:gnd! 189:vdd!  c=8.90595e-18
c1578 405:gnd! 193:vdd!  c=2.84876e-18
c1577 405:gnd! 258:vdd!  c=9.20847e-18
c1576 405:gnd! 190:vdd!  c=5.0205e-18
c1575 405:gnd! 194:vdd!  c=2.68122e-18
c1574 405:gnd! 243:vdd!  c=1.76574e-18
c1573 405:gnd! 263:vdd!  c=1.47129e-17
c1572 405:gnd! 245:vdd!  c=5.86361e-19
c1571 405:gnd! 40:net39  c=5.26613e-18
c1570 405:gnd! 41:net39  c=2.46382e-17
c1569 405:gnd! 50:qm  c=3.01785e-18
c1568 405:gnd! 165:vdd!  c=2.71618e-18
c1567 405:gnd! 54:qm  c=3.58839e-18
c1566 405:gnd! 175:vdd!  c=2.85684e-18
c1565 405:gnd! 51:qm  c=2.8815e-20
c1564 405:gnd! 177:vdd!  c=8.20762e-19
c1563 405:gnd! 265:vdd!  c=7.05479e-19
c1562 405:gnd! 267:vdd!  c=1.41532e-17
c1561 405:gnd! 32:net39  c=4.9063e-17
c1560 405:gnd! 33:net39  c=1.6106e-18
c1559 405:gnd! 254:vdd!  c=3.94475e-17
c1558 405:gnd! 198:vdd!  c=9.71303e-18
c1557 405:gnd! 157:ln_n42  c=8.80111e-17
c1556 405:gnd! 197:vdd!  c=3.28934e-18
cg1555 404:gnd! 0  c=5.16936e-18
c1554 404:gnd! 157:ln_n42  c=1.73812e-17
c1553 404:gnd! 32:net39  c=9.53e-19
c1552 404:gnd! 19:net21  c=2.20081e-18
c1551 404:gnd! 17:net21  c=2.41034e-18
c1550 404:gnd! 243:vdd!  c=2.91035e-18
c1549 404:gnd! 13:net21  c=1.24206e-19
c1548 404:gnd! 196:vdd!  c=4.25494e-18
c1547 404:gnd! 192:vdd!  c=4.29726e-19
cg1546 403:gnd! 0  c=4.87766e-18
c1545 403:gnd! 157:ln_n42  c=7.18167e-18
c1544 403:gnd! clkb  c=2.26117e-18
c1543 403:gnd! 267:vdd!  c=2.18249e-19
c1542 403:gnd! 41:net39  c=1.26208e-18
c1541 403:gnd! 13:net21  c=1.78972e-19
c1540 403:gnd! 190:vdd!  c=2.71954e-18
cg1539 401:gnd! 0  c=7.32002e-18
c1538 401:gnd! clk  c=2.82763e-18
c1537 401:gnd! 17:net21  c=1.38222e-19
c1536 401:gnd! 244:vdd!  c=3.04428e-18
c1535 401:gnd! 364:clk  c=1.85799e-19
cg1534 400:gnd! 0  c=2.36678e-17
c1533 400:gnd! 189:vdd!  c=1.10537e-16
c1532 400:gnd! 193:vdd!  c=4.15423e-17
c1531 400:gnd! 190:vdd!  c=1.10032e-18
c1530 400:gnd! 13:net21  c=5.38289e-17
c1529 400:gnd! 191:vdd!  c=4.86924e-18
c1528 400:gnd! 194:vdd!  c=1.47107e-17
c1527 400:gnd! 242:vdd!  c=5.87881e-18
c1526 400:gnd! 243:vdd!  c=2.20944e-17
c1525 400:gnd! 192:vdd!  c=3.11608e-18
c1524 400:gnd! 245:vdd!  c=1.47235e-18
c1523 400:gnd! 196:vdd!  c=1.37863e-17
c1522 400:gnd! 237:vdd!  c=9.63846e-19
c1521 400:gnd! 238:vdd!  c=1.1268e-18
c1520 400:gnd! 122:net33  c=2.01195e-18
c1519 400:gnd! 16:net21  c=4.79747e-19
c1518 400:gnd! 17:net21  c=2.18701e-17
c1517 400:gnd! 18:net21  c=3.79841e-18
c1516 400:gnd! 19:net21  c=1.40247e-19
c1515 400:gnd! 248:vdd!  c=5.44796e-20
c1514 400:gnd! 244:vdd!  c=7.74947e-18
c1513 400:gnd! 124:net33  c=6.28577e-18
c1512 400:gnd! 32:net39  c=3.84038e-19
c1511 400:gnd! 126:net33  c=3.82789e-18
c1510 400:gnd! 157:ln_n42  c=1.49775e-16
c1509 400:gnd! 239:vdd!  c=1.55261e-17
cg1508 398:gnd! 0  c=7.37518e-18
c1507 398:gnd! 364:clk  c=3.0936e-19
c1506 398:gnd! 122:net33  c=4.89739e-19
cg1505 396:gnd! 0  c=1.17782e-17
c1504 396:gnd! 182:vdd!  c=2.44767e-17
c1503 396:gnd! 220:vdd!  c=1.93083e-18
c1502 396:gnd! 186:vdd!  c=1.59109e-16
c1501 396:gnd! 179:vdd!  c=1.18214e-19
c1500 396:gnd! 183:vdd!  c=3.58342e-17
c1499 396:gnd! 216:vdd!  c=2.30243e-18
c1498 396:gnd! 122:net33  c=2.80809e-17
c1497 396:gnd! 226:vdd!  c=8.823e-18
c1496 396:gnd! 228:vdd!  c=7.31913e-18
c1495 396:gnd! 117:net33  c=3.30954e-20
c1494 396:gnd! 118:net33  c=1.58356e-19
c1493 396:gnd! 123:net33  c=2.08534e-17
c1492 396:gnd! 124:net33  c=8.65986e-18
c1491 396:gnd! 180:vdd!  c=8.16418e-19
c1490 396:gnd! 169:vdd!  c=4.55221e-19
c1489 396:gnd! 126:net33  c=2.08596e-17
c1488 396:gnd! 127:net33  c=1.031e-18
c1487 396:gnd! 157:ln_n42  c=6.07641e-17
c1486 396:gnd! 217:vdd!  c=2.37071e-18
c1485 396:gnd! 239:vdd!  c=9.79052e-19
cg1484 394:gnd! 0  c=8.12089e-18
c1483 394:gnd! 119:net33  c=2.3901e-17
c1482 394:gnd! 120:net33  c=1.43029e-18
c1481 394:gnd! 121:net33  c=5.1775e-18
c1480 394:gnd! 184:vdd!  c=1.97616e-16